/*--------------------------------*- C++ -*----------------------------------*\
  =========                 |
  \\      /  F ield         | OpenFOAM: The Open Source CFD Toolbox
   \\    /   O peration     | Website:  https://openfoam.org
    \\  /    A nd           | Version:  8
     \\/     M anipulation  |
\*---------------------------------------------------------------------------*/
FoamFile
{
    version     2.0;
    format      ascii;
    class       dictionary;
    location    "constant";
    object      transportProperties;
}
// * * * * * * * * * * * * * * * * * * * * * * * * * * * * * * * * * * * * * //

phases (water air);

water // fluid entering the pipe
{
    transportModel  Newtonian;
    nu              1.8e-03;
    rho             1000;
}

air // fluid already inside the pipe
{
    transportModel  Newtonian;
    nu              8.1e-03;
    rho             1000;
}

sigma           0.000707106; // very low interfacial tension


// ************************************************************************* //
