/*--------------------------------*- C++ -*----------------------------------*\
  =========                 |
  \\      /  F ield         | OpenFOAM: The Open Source CFD Toolbox
   \\    /   O peration     | Website:  https://openfoam.org
    \\  /    A nd           | Version:  8
     \\/     M anipulation  |
\*---------------------------------------------------------------------------*/
FoamFile
{
    version     2.0;
    format      ascii;
    class       polyBoundaryMesh;
    location    "constant/polyMesh";
    object      boundary;
}
// * * * * * * * * * * * * * * * * * * * * * * * * * * * * * * * * * * * * * //

3
(
    inlet
    {
        type            patch;
        physicalType    patch;
        nFaces          300;
        startFace       87700;
    }
    outlet
    {
        type            patch;
        physicalType    patch;
        nFaces          300;
        startFace       88000;
    }
    walls
    {
        type            patch;
        physicalType    patch;
        nFaces          4000;
        startFace       88300;
    }
)

// ************************************************************************* //
